                                   MODFLOW 6
                U.S. GEOLOGICAL SURVEY MODULAR HYDROLOGIC MODEL
                          GROUNDWATER FLOW MODEL (GWF)
                            VERSION 6.2.0 10/22/2020

   MODFLOW 6 compiled Oct 22 2020 09:26:42 with IFORT compiler (ver. 19.10.2)

This software has been approved for release by the U.S. Geological 
Survey (USGS). Although the software has been subjected to rigorous 
review, the USGS reserves the right to update the software as needed 
pursuant to further analysis and review. No warranty, expressed or 
implied, is made by the USGS or the U.S. Government as to the 
functionality of the software and related material nor shall the 
fact of release constitute any such warranty. Furthermore, the 
software is released on condition that neither the USGS nor the U.S. 
Government shall be held liable for any damages resulting from its 
authorized or unauthorized use. Also refer to the USGS Water 
Resources Software User Rights Notice for complete use, copyright, 
and distribution information.


System command used to initiate simulation:
C:/WRDAPP/mf6.2.0/bin/mf6

MODFLOW was compiled using uniform precision.

Real Variables
  KIND: 8
  TINY (smallest non-zero value):    2.225074-308
  HUGE (largest value):    1.797693+308
  PRECISION: 15
  BIT SIZE: 64

Integer Variables
  KIND: 4
  HUGE (largest value): 2147483647
  BIT SIZE: 32

Long Integer Variables
  KIND: 8
  HUGE (largest value): 9223372036854775807
  BIT SIZE: 64

Logical Variables
  KIND: 4
  BIT SIZE: 32
 

 OPENED tuto01_mf6.nam.dis
 FILE TYPE:DIS6                   UNIT 1005   STATUS:OLD                 
 FORMAT:FORMATTED              ACCESS:SEQUENTIAL          
 ACTION:READ                


 OPENED tuto01_mf6.nam.ic
 FILE TYPE:IC6                    UNIT 1006   STATUS:OLD                 
 FORMAT:FORMATTED              ACCESS:SEQUENTIAL          
 ACTION:READ                


 OPENED tuto01_mf6.nam.npf
 FILE TYPE:NPF6                   UNIT 1007   STATUS:OLD                 
 FORMAT:FORMATTED              ACCESS:SEQUENTIAL          
 ACTION:READ                


 OPENED tuto01_mf6.nam.chd
 FILE TYPE:CHD6                   UNIT 1008   STATUS:OLD                 
 FORMAT:FORMATTED              ACCESS:SEQUENTIAL          
 ACTION:READ                


 OPENED tuto01_mf6.nam.oc
 FILE TYPE:OC6                    UNIT 1009   STATUS:OLD                 
 FORMAT:FORMATTED              ACCESS:SEQUENTIAL          
 ACTION:READ                


 DIS -- STRUCTURED GRID DISCRETIZATION PACKAGE, VERSION 2 : 3/27/2014 - INPUT READ FROM UNIT 1005


 # File generated by Flopy version 3.3.2 on 11/25/2020 at 11:28:07.
 PROCESSING DISCRETIZATION OPTIONS
 END OF DISCRETIZATION OPTIONS
 MODEL LENGTH UNIT IS UNDEFINED
 PROCESSING DISCRETIZATION DIMENSIONS
    NLAY =      10
    NROW =     101
    NCOL =     101
 END OF DISCRETIZATION DIMENSIONS
 PROCESSING GRIDDATA

                     DELR =   4.000000    

                     DELC =   4.000000    

 TOP ELEVATION OF LAYER 1 =   0.000000    

   MODEL LAYER BOTTOM EL. =  -5.000000     FOR LAYER 1

   MODEL LAYER BOTTOM EL. =  -10.00000     FOR LAYER 2

   MODEL LAYER BOTTOM EL. =  -15.00000     FOR LAYER 3

   MODEL LAYER BOTTOM EL. =  -20.00000     FOR LAYER 4

   MODEL LAYER BOTTOM EL. =  -25.00000     FOR LAYER 5

   MODEL LAYER BOTTOM EL. =  -30.00000     FOR LAYER 6

   MODEL LAYER BOTTOM EL. =  -35.00000     FOR LAYER 7

   MODEL LAYER BOTTOM EL. =  -40.00000     FOR LAYER 8

   MODEL LAYER BOTTOM EL. =  -45.00000     FOR LAYER 9

   MODEL LAYER BOTTOM EL. =  -50.00000     FOR LAYER 10
 END PROCESSING GRIDDATA

 NPF -- NODE PROPERTY FLOW PACKAGE, VERSION 1, 3/30/2015 INPUT READ FROM UNIT 1007


 # File generated by Flopy version 3.3.2 on 11/25/2020 at 11:28:07.
 PROCESSING NPF OPTIONS
    CELL-BY-CELL FLOW INFORMATION WILL BE SAVED TO BINARY FILE WHENEVER ICBCFL IS NOT ZERO.
 END OF NPF OPTIONS

 CHD   -- CHD PACKAGE, VERSION 8, 2/22/2014 INPUT READ FROM UNIT 1008
 # File generated by Flopy version 3.3.2 on 11/25/2020 at 11:28:07.

 PROCESSING CHD OPTIONS
    FLOWS WILL BE SAVED TO BUDGET FILE SPECIFIED IN OUTPUT CONTROL
 END OF CHD OPTIONS

 PROCESSING CHD DIMENSIONS
    MAXBOUND =    4001
 END OF CHD DIMENSIONS

 IC -- INITIAL CONDITIONS PACKAGE, VERSION 8, 3/28/2015 INPUT READ FROM UNIT 1006
 # File generated by Flopy version 3.3.2 on 11/25/2020 at 11:28:07.
 PROCESSING GRIDDATA
 END PROCESSING GRIDDATA
 PROCESSING GRIDDATA

                ICELLTYPE = 1

                        K =   1.000000    
 K33 not provided.  Assuming K33 = K.
 K22 not provided.  Assuming K22 = K.
 END PROCESSING GRIDDATA
    BINARY GRID INFORMATION WILL BE WRITTEN TO:
      UNIT NUMBER: 1011
      FILE NAME: C:\Users\Oscar\pyrepo\Example_flopy\tuto01_mf6.nam.dis.grb

 OPENED C:\Users\Oscar\pyrepo\Example_flopy\tuto01_mf6.nam.dis.grb
 FILE TYPE:DATA(BINARY)   UNIT 1011   STATUS:REPLACE             
 FORMAT:UNFORMATTED            ACCESS:STREAM              
 ACTION:READWRITE           

      THE LAST TIME STEP WILL BE PRINTED
      THE LAST TIME STEP WILL BE PRINTED
 # File generated by Flopy version 3.3.2 on 11/25/2020 at 11:28:07.

 PROCESSING OC OPTIONS

    BUDGET INFORMATION WILL BE WRITTEN TO:
      UNIT NUMBER: 1012
      FILE NAME: tuto01_mf6.cbb

 OPENED tuto01_mf6.cbb
 FILE TYPE:DATA(BINARY)   UNIT 1012   STATUS:REPLACE             
 FORMAT:UNFORMATTED            ACCESS:STREAM              
 ACTION:READWRITE           

    HEAD INFORMATION WILL BE WRITTEN TO:
      UNIT NUMBER: 1013
      FILE NAME: tuto01_mf6.hds

 OPENED tuto01_mf6.hds
 FILE TYPE:DATA(BINARY)   UNIT 1013   STATUS:REPLACE             
 FORMAT:UNFORMATTED            ACCESS:STREAM              
 ACTION:READWRITE           

 END OF OC OPTIONS

start timestep kper="1" kstp="1" mode="normal"


 BEGIN READING OUTPUT CONTROL FOR STRESS PERIOD 1
      ALL TIME STEPS WILL BE SAVED
      ALL TIME STEPS WILL BE SAVED
      THE LAST TIME STEP WILL BE PRINTED

 END READING OUTPUT CONTROL FOR STRESS PERIOD 1
 UBDSV1 SAVING     FLOW-JA-FACE ON UNIT   1012 AT TIME STEP      1, STRESS PERIOD      1
 UBDSV06 SAVING              CHD IN MODEL TUTO01_MF6.NAM   PACKAGE TUTO01_MF6.NAM  CONNECTED TO MODEL TUTO01_MF6.NAM   PACKAGE CHD_0            ON UNIT   1012 AT TIME STEP      1, STRESS PERIOD      1
1
  HEAD IN LAYER   1 AT END OF TIME STEP   1 IN STRESS PERIOD    1
  ---------------------------------------------------------------------------

            1           2           3           4           5           6           7           8           9          10
           11          12          13          14          15          16          17          18          19          20
           21          22          23          24          25          26          27          28          29          30
           31          32          33          34          35          36          37          38          39          40
           41          42          43          44          45          46          47          48          49          50
           51          52          53          54          55          56          57          58          59          60
           61          62          63          64          65          66          67          68          69          70
           71          72          73          74          75          76          77          78          79          80
           81          82          83          84          85          86          87          88          89          90
           91          92          93          94          95          96          97          98          99         100
          101
 ........................................................................................................................
   1    100.0       90.00       90.00       90.00       90.00       90.00       90.00       90.00       90.00       90.00    
        90.00       90.00       90.00       90.00       90.00       90.00       90.00       90.00       90.00       90.00    
        90.00       90.00       90.00       90.00       90.00       90.00       90.00       90.00       90.00       90.00    
        90.00       90.00       90.00       90.00       90.00       90.00       90.00       90.00       90.00       90.00    
        90.00       90.00       90.00       90.00       90.00       90.00       90.00       90.00       90.00       90.00    
        90.00       90.00       90.00       90.00       90.00       90.00       90.00       90.00       90.00       90.00    
        90.00       90.00       90.00       90.00       90.00       90.00       90.00       90.00       90.00       90.00    
        90.00       90.00       90.00       90.00       90.00       90.00       90.00       90.00       90.00       90.00    
        90.00       90.00       90.00       90.00       90.00       90.00       90.00       90.00       90.00       90.00    
        90.00       90.00       90.00       90.00       90.00       90.00       90.00       90.00       90.00       90.00    
        100.0    
   2    100.0       95.00       93.02       92.09       91.58       91.27       91.06       90.91       90.80       90.71    
        90.64       90.58       90.53       90.49       90.45       90.42       90.40       90.37       90.35       90.34    
        90.32       90.30       90.29       90.28       90.27       90.26       90.25       90.24       90.23       90.23    
        90.22       90.21       90.21       90.20       90.20       90.19       90.19       90.19       90.18       90.18    
        90.18       90.17       90.17       90.17       90.17       90.17       90.17       90.17       90.17       90.17    
        90.17       90.17       90.17       90.17       90.17       90.17       90.17       90.17       90.17       90.17    
        90.18       90.18       90.18       90.19       90.19       90.19       90.20       90.20       90.21       90.21    
        90.22       90.23       90.23       90.24       90.25       90.26       90.27       90.28       90.29       90.31    
        90.32       90.34       90.35       90.38       90.40       90.42       90.46       90.49       90.53       90.58    
        90.64       90.71       90.80       90.91       91.06       91.27       91.58       92.09       93.02       95.00    
        100.0    
   3    100.0       96.98       95.00       93.77       92.97       92.44       92.06       91.78       91.57       91.40    
        91.26       91.15       91.05       90.97       90.90       90.85       90.79       90.75       90.71       90.67    
        90.64       90.61       90.58       90.56       90.53       90.51       90.50       90.48       90.46       90.45    
        90.44       90.42       90.41       90.40       90.39       90.39       90.38       90.37       90.36       90.36    
        90.35       90.35       90.34       90.34       90.34       90.34       90.33       90.33       90.33       90.33    
        90.33       90.33       90.33       90.33       90.33       90.34       90.34       90.34       90.35       90.35    
        90.35       90.36       90.37       90.37       90.38       90.39       90.40       90.40       90.42       90.43    
        90.44       90.45       90.47       90.48       90.50       90.52       90.54       90.56       90.58       90.61    
        90.64       90.67       90.71       90.75       90.79       90.85       90.91       90.97       91.05       91.15    
        91.26       91.40       91.57       91.78       92.06       92.44       92.97       93.77       95.00       96.98    
        100.0    
   4    100.0       97.91       96.23       95.00       94.11       93.45       92.96       92.59       92.29       92.05    
        91.86       91.70       91.56       91.45       91.35       91.26       91.18       91.11       91.05       91.00    
        90.95       90.91       90.87       90.83       90.80       90.77       90.74       90.72       90.69       90.67    
        90.65       90.64       90.62       90.60       90.59       90.58       90.57       90.56       90.55       90.54    
        90.53       90.52       90.52       90.51       90.51       90.50       90.50       90.50       90.50       90.49    
        90.49       90.49       90.50       90.50       90.50       90.50       90.51       90.51       90.52       90.52    
        90.53       90.54       90.55       90.56       90.57       90.58       90.59       90.61       90.62       90.64    
        90.66       90.68       90.70       90.72       90.74       90.77       90.80       90.83       90.87       90.91    
        90.95       91.00       91.06       91.12       91.18       91.26       91.35       91.45       91.56       91.70    
        91.86       92.05       92.29       92.59       92.96       93.45       94.11       95.00       96.23       97.91    
        100.0    
   5    100.0       98.41       97.02       95.89       95.00       94.30       93.75       93.31       92.96       92.67    
        92.43       92.22       92.05       91.90       91.77       91.66       91.56       91.47       91.40       91.33    
        91.26       91.20       91.15       91.11       91.06       91.02       90.99       90.95       90.92       90.90    
        90.87       90.85       90.82       90.80       90.79       90.77       90.75       90.74       90.73       90.72    
        90.71       90.70       90.69       90.68       90.67       90.67       90.67       90.66       90.66       90.66    
        90.66       90.66       90.66       90.66       90.67       90.67       90.68       90.68       90.69       90.70    
        90.71       90.72       90.73       90.74       90.76       90.77       90.79       90.81       90.83       90.85    
        90.87       90.90       90.93       90.96       90.99       91.03       91.06       91.11       91.16       91.21    
        91.26       91.33       91.40       91.48       91.56       91.66       91.78       91.90       92.05       92.22    
        92.43       92.67       92.96       93.31       93.75       94.30       95.00       95.89       97.03       98.41    
        100.0    
   6    100.0       98.73       97.56       96.55       95.70       95.00       94.42       93.95       93.56       93.23    
        92.95       92.72       92.51       92.34       92.19       92.05       91.93       91.82       91.73       91.64    
        91.57       91.50       91.43       91.37       91.32       91.27       91.23       91.19       91.15       91.11    
        91.08       91.05       91.03       91.00       90.98       90.96       90.94       90.92       90.91       90.89    
        90.88       90.87       90.86       90.85       90.84       90.84       90.83       90.83       90.82       90.82    
        90.82       90.82       90.82       90.83       90.83       90.84       90.84       90.85       90.86       90.87    
        90.88       90.89       90.91       90.92       90.94       90.96       90.98       91.00       91.03       91.06    
        91.09       91.12       91.15       91.19       91.23       91.28       91.32       91.38       91.43       91.50    
        91.57       91.65       91.73       91.83       91.93       92.05       92.19       92.34       92.52       92.72    
        92.96       93.23       93.56       93.95       94.42       95.00       95.70       96.55       97.56       98.73    
        100.0    
   7    100.0       98.94       97.94       97.04       96.25       95.57       95.00       94.51       94.10       93.74    
        93.44       93.18       92.95       92.75       92.58       92.42       92.29       92.16       92.05       91.95    
        91.86       91.78       91.71       91.64       91.57       91.52       91.47       91.42       91.37       91.33    
        91.29       91.26       91.23       91.20       91.17       91.15       91.12       91.10       91.08       91.07    
        91.05       91.04       91.03       91.02       91.01       91.00       90.99       90.99       90.99       90.98    
        90.98       90.98       90.99       90.99       90.99       91.00       91.01       91.02       91.03       91.04    
        91.05       91.07       91.09       91.11       91.13       91.15       91.17       91.20       91.23       91.26    
        91.30       91.34       91.38       91.42       91.47       91.52       91.58       91.64       91.71       91.78    
        91.87       91.96       92.06       92.17       92.29       92.43       92.58       92.76       92.95       93.18    
        93.44       93.75       94.10       94.51       95.00       95.57       96.25       97.04       97.94       98.94    
        100.0    
   8    100.0       99.09       98.22       97.41       96.69       96.04       95.48       95.00       94.57       94.21    
        93.89       93.61       93.36       93.14       92.95       92.78       92.63       92.49       92.36       92.25    
        92.15       92.06       91.97       91.89       91.82       91.76       91.70       91.64       91.59       91.55    
        91.50       91.46       91.43       91.39       91.36       91.33       91.31       91.28       91.26       91.24    
        91.22       91.21       91.19       91.18       91.17       91.16       91.16       91.15       91.15       91.14    
        91.14       91.14       91.15       91.15       91.16       91.16       91.17       91.18       91.20       91.21    
        91.23       91.24       91.26       91.29       91.31       91.34       91.36       91.40       91.43       91.47    
        91.51       91.55       91.60       91.65       91.70       91.76       91.83       91.90       91.98       92.06    
        92.15       92.26       92.37       92.49       92.63       92.78       92.95       93.15       93.36       93.61    
        93.89       94.21       94.58       95.00       95.49       96.05       96.69       97.41       98.22       99.09    
        100.0    
   9    100.0       99.20       98.43       97.71       97.04       96.44       95.90       95.42       95.00       94.62    
        94.29       94.00       93.74       93.51       93.30       93.12       92.95       92.80       92.67       92.54    
        92.43       92.33       92.23       92.15       92.07       91.99       91.93       91.86       91.81       91.76    
        91.71       91.66       91.62       91.58       91.55       91.52       91.49       91.46       91.43       91.41    
        91.39       91.37       91.36       91.35       91.33       91.32       91.32       91.31       91.31       91.30    
        91.30       91.30       91.31       91.31       91.32       91.33       91.34       91.35       91.36       91.38    
        91.40       91.42       91.44       91.46       91.49       91.52       91.55       91.59       91.63       91.67    
        91.71       91.76       91.81       91.87       91.93       92.00       92.07       92.15       92.24       92.33    
        92.43       92.55       92.67       92.81       92.96       93.12       93.31       93.51       93.74       94.00    
        94.30       94.62       95.00       95.42       95.90       96.44       97.04       97.71       98.43       99.20    
        100.0    
  10    100.0       99.29       98.60       97.94       97.33       96.76       96.25       95.78       95.37       94.99    
        94.66       94.36       94.09       93.85       93.63       93.44       93.26       93.10       92.95       92.82    
        92.70       92.59       92.48       92.39       92.30       92.22       92.15       92.08       92.02       91.96    
        91.91       91.86       91.81       91.77       91.73       91.70       91.66       91.63       91.61       91.58    
        91.56       91.54       91.52       91.51       91.49       91.48       91.47       91.47       91.46       91.46    
        91.46       91.46       91.46       91.47       91.48       91.48       91.50       91.51       91.53       91.54    
        91.56       91.59       91.61       91.64       91.67       91.70       91.74       91.78       91.82       91.86    
        91.91       91.97       92.02       92.09       92.16       92.23       92.31       92.40       92.49       92.59    
        92.70       92.83       92.96       93.11       93.27       93.44       93.64       93.86       94.10       94.36    
        94.66       95.00       95.37       95.79       96.25       96.77       97.33       97.94       98.60       99.29    
        100.0    
  11    100.0       99.36       98.74       98.14       97.57       97.04       96.55       96.10       95.70       95.33    
        94.99       94.69       94.42       94.17       93.94       93.74       93.55       93.38       93.23       93.09    
        92.96       92.84       92.73       92.63       92.53       92.45       92.37       92.29       92.23       92.16    
        92.10       92.05       92.00       91.95       91.91       91.87       91.84       91.80       91.78       91.75    
        91.72       91.70       91.68       91.67       91.65       91.64       91.63       91.62       91.62       91.62    
        91.61       91.62       91.62       91.62       91.63       91.64       91.65       91.67       91.69       91.71    
        91.73       91.75       91.78       91.81       91.84       91.88       91.92       91.96       92.01       92.06    
        92.11       92.17       92.23       92.30       92.37       92.45       92.54       92.63       92.73       92.84    
        92.96       93.09       93.24       93.39       93.56       93.75       93.95       94.17       94.42       94.69    
        95.00       95.33       95.70       96.11       96.55       97.04       97.57       98.14       98.74       99.36    
        100.0    
  12    100.0       99.42       98.85       98.30       97.77       97.28       96.81       96.38       95.99       95.63    
        95.29       94.99       94.72       94.46       94.23       94.02       93.83       93.65       93.49       93.34    
        93.21       93.08       92.96       92.86       92.76       92.66       92.58       92.50       92.43       92.36    
        92.30       92.24       92.18       92.14       92.09       92.05       92.01       91.97       91.94       91.91    
        91.89       91.86       91.84       91.82       91.81       91.80       91.79       91.78       91.77       91.77    
        91.77       91.77       91.77       91.78       91.79       91.80       91.81       91.83       91.85       91.87    
        91.89       91.92       91.95       91.98       92.01       92.05       92.10       92.14       92.19       92.25    
        92.30       92.37       92.43       92.51       92.59       92.67       92.76       92.86       92.97       93.09    
        93.21       93.35       93.50       93.66       93.84       94.03       94.24       94.47       94.72       95.00    
        95.30       95.63       95.99       96.39       96.81       97.28       97.77       98.30       98.85       99.42    
        100.0    
  13    100.0       99.47       98.94       98.43       97.94       97.48       97.04       96.63       96.25       95.89    
        95.57       95.27       94.99       94.74       94.50       94.29       94.09       93.91       93.74       93.59    
        93.44       93.31       93.19       93.08       92.97       92.87       92.78       92.70       92.62       92.55    
        92.48       92.42       92.37       92.31       92.26       92.22       92.18       92.14       92.10       92.07    
        92.05       92.02       92.00       91.98       91.96       91.95       91.94       91.93       91.92       91.92    
        91.92       91.92       91.92       91.93       91.94       91.95       91.97       91.98       92.00       92.02    
        92.05       92.08       92.11       92.15       92.18       92.22       92.27       92.32       92.37       92.43    
        92.49       92.56       92.63       92.71       92.79       92.88       92.98       93.08       93.20       93.32    
        93.45       93.59       93.75       93.92       94.10       94.29       94.51       94.74       95.00       95.27    
        95.57       95.90       96.25       96.63       97.04       97.48       97.95       98.43       98.94       99.47    
        100.0    
  14    100.0       99.51       99.02       98.55       98.09       97.65       97.24       96.84       96.48       96.13    
        95.81       95.52       95.24       94.99       94.75       94.54       94.34       94.15       93.98       93.82    
        93.67       93.53       93.41       93.29       93.18       93.08       92.98       92.90       92.81       92.74    
        92.67       92.60       92.54       92.48       92.43       92.39       92.34       92.30       92.26       92.23    
        92.20       92.18       92.15       92.13       92.11       92.10       92.09       92.08       92.07       92.07    
        92.07       92.07       92.07       92.08       92.09       92.10       92.12       92.13       92.16       92.18    
        92.21       92.24       92.27       92.31       92.35       92.39       92.44       92.49       92.55       92.61    
        92.68       92.75       92.82       92.90       92.99       93.09       93.19       93.30       93.42       93.54    
        93.68       93.83       93.99       94.16       94.34       94.54       94.76       94.99       95.25       95.52    
        95.82       96.14       96.48       96.85       97.24       97.65       98.09       98.55       99.02       99.51    
        100.0    
  15    100.0       99.54       99.09       98.65       98.22       97.81       97.41       97.03       96.68       96.35    
        96.04       95.74       95.47       95.22       94.99       94.77       94.56       94.38       94.20       94.04    
        93.89       93.75       93.61       93.49       93.38       93.27       93.18       93.08       93.00       92.92    
        92.84       92.78       92.71       92.65       92.60       92.55       92.50       92.46       92.42       92.39    
        92.35       92.33       92.30       92.28       92.26       92.25       92.23       92.22       92.22       92.21    
        92.21       92.21       92.22       92.23       92.24       92.25       92.26       92.28       92.31       92.33    
        92.36       92.39       92.43       92.47       92.51       92.56       92.61       92.66       92.72       92.78    
        92.85       92.93       93.01       93.09       93.18       93.28       93.39       93.50       93.62       93.76    
        93.90       94.05       94.21       94.38       94.57       94.78       94.99       95.23       95.48       95.75    
        96.04       96.35       96.69       97.04       97.41       97.81       98.22       98.65       99.09       99.54    
        100.0    
  16    100.0       99.57       99.15       98.74       98.33       97.94       97.56       97.21       96.86       96.54    
        96.24       95.95       95.69       95.44       95.20       94.98       94.78       94.59       94.41       94.25    
        94.09       93.95       93.81       93.69       93.57       93.46       93.36       93.27       93.18       93.09    
        93.02       92.95       92.88       92.82       92.76       92.71       92.66       92.62       92.57       92.54    
        92.50       92.48       92.45       92.43       92.41       92.39       92.38       92.37       92.36       92.35    
        92.35       92.36       92.36       92.37       92.38       92.39       92.41       92.43       92.45       92.48    
        92.51       92.54       92.58       92.62       92.67       92.72       92.77       92.83       92.89       92.96    
        93.03       93.10       93.19       93.28       93.37       93.47       93.58       93.70       93.82       93.96    
        94.10       94.26       94.42       94.60       94.79       94.99       95.21       95.44       95.69       95.96    
        96.24       96.55       96.87       97.21       97.57       97.94       98.33       98.74       99.15       99.57    
        100.0    
  17    100.0       99.60       99.20       98.81       98.43       98.06       97.70       97.36       97.03       96.72    
        96.42       96.14       95.88       95.64       95.40       95.19       94.98       94.79       94.61       94.44    
        94.29       94.14       94.00       93.88       93.76       93.64       93.54       93.44       93.35       93.26    
        93.18       93.11       93.04       92.98       92.92       92.86       92.81       92.77       92.72       92.69    
        92.65       92.62       92.59       92.57       92.55       92.53       92.52       92.51       92.50       92.49    
        92.49       92.50       92.50       92.51       92.52       92.53       92.55       92.57       92.60       92.63    
        92.66       92.69       92.73       92.77       92.82       92.87       92.93       92.99       93.05       93.12    
        93.19       93.27       93.36       93.45       93.55       93.65       93.77       93.89       94.02       94.15    
        94.30       94.46       94.62       94.80       94.99       95.19       95.41       95.64       95.89       96.15    
        96.43       96.72       97.04       97.36       97.70       98.06       98.43       98.81       99.20       99.60    
        100.0    
  18    100.0       99.62       99.25       98.88       98.52       98.16       97.82       97.49       97.18       96.88    
        96.59       96.32       96.06       95.82       95.59       95.37       95.17       94.98       94.80       94.63    
        94.47       94.32       94.19       94.05       93.93       93.82       93.71       93.61       93.52       93.43    
        93.35       93.27       93.20       93.13       93.07       93.01       92.96       92.91       92.87       92.83    
        92.79       92.76       92.73       92.71       92.69       92.67       92.65       92.64       92.64       92.63    
        92.63       92.63       92.64       92.65       92.66       92.67       92.69       92.71       92.74       92.77    
        92.80       92.84       92.88       92.92       92.97       93.02       93.08       93.14       93.21       93.28    
        93.36       93.44       93.53       93.62       93.72       93.83       93.94       94.07       94.20       94.34    
        94.48       94.64       94.81       94.99       95.18       95.38       95.60       95.83       96.07       96.33    
        96.60       96.88       97.18       97.50       97.83       98.17       98.52       98.88       99.25       99.62    
        100.0    
  19    100.0       99.64       99.29       98.94       98.59       98.26       97.93       97.62       97.31       97.02    
        96.74       96.48       96.23       95.99       95.76       95.55       95.35       95.16       94.98       94.81    
        94.65       94.50       94.36       94.23       94.10       93.98       93.87       93.77       93.68       93.59    
        93.50       93.42       93.35       93.28       93.22       93.16       93.11       93.06       93.01       92.97    
        92.93       92.90       92.87       92.84       92.82       92.80       92.79       92.78       92.77       92.76    
        92.76       92.76       92.77       92.78       92.79       92.81       92.83       92.85       92.88       92.91    
        92.94       92.98       93.02       93.07       93.12       93.17       93.23       93.29       93.36       93.44    
        93.51       93.60       93.69       93.79       93.89       94.00       94.11       94.24       94.37       94.51    
        94.66       94.82       94.99       95.17       95.36       95.56       95.77       96.00       96.24       96.49    
        96.75       97.03       97.32       97.62       97.94       98.26       98.60       98.94       99.29       99.64    
        100.0    
  20    100.0       99.66       99.32       98.99       98.66       98.34       98.03       97.73       97.44       97.15    
        96.88       96.63       96.38       96.15       95.92       95.71       95.51       95.32       95.14       94.97    
        94.81       94.66       94.52       94.39       94.26       94.14       94.03       93.93       93.83       93.74    
        93.65       93.57       93.50       93.43       93.36       93.30       93.25       93.20       93.15       93.11    
        93.07       93.03       93.00       92.98       92.95       92.93       92.92       92.91       92.90       92.89    
        92.89       92.89       92.90       92.91       92.92       92.94       92.96       92.98       93.01       93.04    
        93.08       93.12       93.16       93.21       93.26       93.31       93.37       93.44       93.51       93.58    
        93.67       93.75       93.84       93.94       94.05       94.16       94.28       94.40       94.54       94.68    
        94.83       94.99       95.16       95.34       95.52       95.72       95.93       96.16       96.39       96.64    
        96.89       97.16       97.44       97.73       98.04       98.35       98.67       98.99       99.33       99.66    
        100.0    
  21    100.0       99.68       99.36       99.04       98.73       98.42       98.12       97.83       97.55       97.28    
        97.01       96.76       96.52       96.29       96.07       95.86       95.67       95.48       95.30       95.13    
        94.97       94.82       94.68       94.54       94.42       94.30       94.18       94.08       93.98       93.88    
        93.80       93.71       93.64       93.57       93.50       93.44       93.38       93.33       93.28       93.24    
        93.20       93.16       93.13       93.10       93.08       93.06       93.05       93.03       93.02       93.02    
        93.02       93.02       93.03       93.04       93.05       93.07       93.09       93.11       93.14       93.17    
        93.21       93.25       93.29       93.34       93.39       93.45       93.51       93.58       93.65       93.73    
        93.81       93.90       93.99       94.09       94.20       94.31       94.43       94.56       94.69       94.84    
        94.99       95.15       95.31       95.49       95.68       95.88       96.08       96.30       96.53       96.77    
        97.02       97.28       97.55       97.84       98.13       98.42       98.73       99.04       99.36       99.68    
        100.0    
  22    100.0       99.69       99.39       99.08       98.78       98.49       98.20       97.92       97.65       97.39    
        97.13       96.89       96.65       96.43       96.21       96.01       95.81       95.62       95.45       95.28    
        95.12       94.97       94.83       94.69       94.56       94.44       94.33       94.22       94.12       94.02    
        93.94       93.85       93.77       93.70       93.63       93.57       93.51       93.46       93.41       93.37    
        93.33       93.29       93.26       93.23       93.21       93.19       93.17       93.16       93.15       93.14    
        93.14       93.14       93.15       93.16       93.17       93.19       93.21       93.24       93.27       93.30    
        93.34       93.38       93.42       93.47       93.53       93.58       93.65       93.72       93.79       93.87    
        93.95       94.04       94.14       94.24       94.34       94.46       94.58       94.71       94.84       94.98    
        95.14       95.29       95.46       95.64       95.82       96.02       96.22       96.44       96.66       96.90    
        97.14       97.39       97.66       97.93       98.21       98.49       98.79       99.09       99.39       99.69    
        100.0    
  23    100.0       99.71       99.41       99.12       98.83       98.55       98.28       98.01       97.74       97.49    
        97.24       97.00       96.77       96.55       96.34       96.14       95.95       95.76       95.59       95.42    
        95.26       95.11       94.97       94.83       94.70       94.58       94.47       94.36       94.26       94.16    
        94.07       93.98       93.91       93.83       93.76       93.70       93.64       93.59       93.54       93.49    
        93.45       93.41       93.38       93.35       93.33       93.30       93.29       93.28       93.27       93.26    
        93.26       93.26       93.27       93.28       93.29       93.31       93.33       93.36       93.39       93.42    
        93.46       93.50       93.55       93.60       93.65       93.71       93.78       93.85       93.92       94.00    
        94.09       94.18       94.27       94.37       94.48       94.60       94.72       94.85       94.98       95.13    
        95.28       95.43       95.60       95.78       95.96       96.15       96.35       96.56       96.78       97.01    
        97.25       97.50       97.75       98.01       98.28       98.56       98.84       99.12       99.41       99.71    
        100.0    
  24    100.0       99.72       99.44       99.16       98.88       98.61       98.34       98.08       97.83       97.58    
        97.34       97.11       96.88       96.67       96.46       96.26       96.07       95.89       95.72       95.55    
        95.39       95.24       95.10       94.96       94.83       94.71       94.60       94.49       94.38       94.29    
        94.20       94.11       94.03       93.96       93.89       93.82       93.76       93.71       93.66       93.61    
        93.57       93.53       93.50       93.47       93.44       93.42       93.40       93.39       93.38       93.38    
        93.37       93.38       93.38       93.39       93.41       93.43       93.45       93.47       93.51       93.54    
        93.58       93.62       93.67       93.72       93.78       93.84       93.90       93.97       94.05       94.13    
        94.21       94.31       94.40       94.51       94.62       94.73       94.85       94.98       95.12       95.26    
        95.41       95.57       95.73       95.91       96.09       96.28       96.48       96.68       96.90       97.12    
        97.35       97.59       97.84       98.09       98.35       98.62       98.89       99.16       99.44       99.72    
        100.0    
  25    100.0       99.73       99.46       99.19       98.92       98.66       98.40       98.15       97.91       97.66    
        97.43       97.21       96.99       96.78       96.57       96.38       96.19       96.01       95.84       95.67    
        95.52       95.37       95.22       95.09       94.96       94.84       94.72       94.61       94.51       94.41    
        94.32       94.23       94.15       94.08       94.01       93.94       93.88       93.82       93.77       93.72    
        93.68       93.64       93.61       93.58       93.55       93.53       93.52       93.50       93.49       93.49    
        93.49       93.49       93.50       93.51       93.52       93.54       93.56       93.59       93.62       93.65    
        93.69       93.74       93.78       93.84       93.89       93.96       94.02       94.09       94.17       94.25    
        94.34       94.43       94.53       94.63       94.74       94.86       94.98       95.11       95.24       95.39    
        95.53       95.69       95.86       96.03       96.21       96.39       96.59       96.79       97.00       97.22    
        97.44       97.68       97.91       98.16       98.41       98.67       98.93       99.19       99.46       99.73    
        100.0    
  26    100.0       99.74       99.48       99.22       98.96       98.71       98.46       98.22       97.98       97.74    
        97.52       97.30       97.08       96.88       96.68       96.48       96.30       96.12       95.95       95.79    
        95.63       95.48       95.34       95.21       95.08       94.96       94.84       94.73       94.63       94.53    
        94.44       94.35       94.27       94.19       94.12       94.05       93.99       93.93       93.88       93.83    
        93.79       93.75       93.72       93.69       93.66       93.64       93.62       93.61       93.60       93.59    
        93.59       93.60       93.60       93.61       93.63       93.65       93.67       93.70       93.73       93.76    
        93.80       93.85       93.90       93.95       94.01       94.07       94.14       94.21       94.29       94.37    
        94.46       94.55       94.65       94.75       94.86       94.98       95.10       95.23       95.36       95.50    
        95.65       95.81       95.97       96.14       96.32       96.50       96.69       96.89       97.10       97.31    
        97.53       97.75       97.99       98.22       98.47       98.72       98.97       99.22       99.48       99.74    
        100.0    
  27    100.0       99.75       99.50       99.25       99.00       98.75       98.51       98.27       98.04       97.82    
        97.59       97.38       97.17       96.97       96.77       96.58       96.40       96.23       96.06       95.90    
        95.74       95.59       95.45       95.32       95.19       95.07       94.95       94.84       94.74       94.64    
        94.55       94.46       94.38       94.30       94.23       94.16       94.10       94.04       93.99       93.94    
        93.90       93.86       93.82       93.79       93.77       93.74       93.73       93.71       93.70       93.70    
        93.70       93.70       93.71       93.72       93.73       93.75       93.77       93.80       93.83       93.87    
        93.91       93.96       94.00       94.06       94.12       94.18       94.25       94.32       94.40       94.48    
        94.57       94.66       94.76       94.86       94.97       95.09       95.21       95.34       95.48       95.62    
        95.76       95.92       96.08       96.25       96.42       96.60       96.79       96.98       97.19       97.39    
        97.61       97.83       98.05       98.28       98.52       98.76       99.00       99.25       99.50       99.75    
        100.0    
  28    100.0       99.76       99.51       99.27       99.03       98.79       98.56       98.33       98.10       97.88    
        97.67       97.46       97.25       97.05       96.86       96.68       96.50       96.32       96.16       96.00    
        95.85       95.70       95.56       95.42       95.30       95.17       95.06       94.95       94.84       94.75    
        94.65       94.56       94.48       94.40       94.33       94.26       94.20       94.14       94.09       94.04    
        94.00       93.96       93.92       93.89       93.87       93.84       93.83       93.81       93.80       93.80    
        93.80       93.80       93.81       93.82       93.83       93.85       93.88       93.90       93.94       93.97    
        94.01       94.06       94.11       94.16       94.22       94.28       94.35       94.43       94.50       94.59    
        94.68       94.77       94.87       94.97       95.08       95.20       95.32       95.45       95.58       95.72    
        95.87       96.02       96.18       96.35       96.52       96.70       96.88       97.07       97.27       97.47    
        97.68       97.90       98.11       98.34       98.57       98.80       99.04       99.27       99.52       99.76    
        100.0    
  29    100.0       99.76       99.53       99.29       99.06       98.83       98.60       98.38       98.16       97.94    
        97.73       97.53       97.33       97.13       96.94       96.76       96.59       96.42       96.25       96.09    
        95.94       95.80       95.66       95.52       95.40       95.28       95.16       95.05       94.95       94.85    
        94.75       94.66       94.58       94.50       94.43       94.36       94.30       94.24       94.19       94.14    
        94.10       94.06       94.02       93.99       93.96       93.94       93.92       93.91       93.90       93.89    
        93.89       93.89       93.90       93.91       93.93       93.95       93.97       94.00       94.03       94.07    
        94.11       94.16       94.21       94.26       94.32       94.38       94.45       94.53       94.61       94.69    
        94.78       94.87       94.97       95.07       95.19       95.30       95.42       95.55       95.68       95.82    
        95.97       96.12       96.27       96.44       96.61       96.78       96.96       97.15       97.35       97.54    
        97.75       97.96       98.17       98.39       98.61       98.84       99.07       99.30       99.53       99.77    
        100.0    
  30    100.0       99.77       99.54       99.31       99.09       98.86       98.64       98.42       98.21       98.00    
        97.79       97.59       97.40       97.21       97.02       96.84       96.67       96.50       96.34       96.18    
        96.03       95.89       95.75       95.62       95.49       95.37       95.25       95.14       95.04       94.94    
        94.85       94.76       94.68       94.60       94.53       94.46       94.39       94.34       94.28       94.23    
        94.19       94.15       94.11       94.08       94.05       94.03       94.01       94.00       93.99       93.98    
        93.98       93.99       93.99       94.00       94.02       94.04       94.06       94.09       94.12       94.16    
        94.20       94.25       94.30       94.36       94.42       94.48       94.55       94.62       94.70       94.79    
        94.87       94.97       95.07       95.17       95.28       95.40       95.52       95.64       95.78       95.91    
        96.06       96.21       96.36       96.52       96.69       96.86       97.04       97.23       97.42       97.61    
        97.81       98.01       98.22       98.44       98.65       98.87       99.09       99.32       99.54       99.77    
        100.0    
  31    100.0       99.78       99.55       99.33       99.11       98.89       98.68       98.47       98.26       98.05    
        97.85       97.65       97.46       97.28       97.09       96.92       96.75       96.58       96.42       96.27    
        96.12       95.97       95.84       95.70       95.58       95.46       95.34       95.23       95.13       95.03    
        94.94       94.85       94.77       94.69       94.61       94.55       94.48       94.42       94.37       94.32    
        94.28       94.23       94.20       94.17       94.14       94.12       94.10       94.09       94.08       94.07    
        94.07       94.07       94.08       94.09       94.11       94.13       94.15       94.18       94.21       94.25    
        94.29       94.34       94.39       94.45       94.51       94.57       94.64       94.71       94.79       94.88    
        94.97       95.06       95.16       95.26       95.37       95.49       95.61       95.73       95.87       96.00    
        96.14       96.29       96.45       96.61       96.77       96.94       97.12       97.30       97.48       97.67    
        97.87       98.07       98.27       98.48       98.69       98.90       99.12       99.34       99.56       99.78    
        100.0    
  32    100.0       99.78       99.57       99.35       99.14       98.92       98.71       98.50       98.30       98.10    
        97.90       97.71       97.52       97.34       97.16       96.99       96.82       96.65       96.50       96.34    
        96.20       96.05       95.92       95.79       95.66       95.54       95.43       95.32       95.21       95.12    
        95.02       94.93       94.85       94.77       94.70       94.63       94.57       94.51       94.45       94.40    
        94.36       94.32       94.28       94.25       94.22       94.20       94.18       94.17       94.16       94.15    
        94.15       94.15       94.16       94.17       94.19       94.21       94.23       94.26       94.30       94.33    
        94.38       94.42       94.47       94.53       94.59       94.66       94.73       94.80       94.88       94.96    
        95.05       95.15       95.24       95.35       95.46       95.57       95.69       95.82       95.95       96.08    
        96.23       96.37       96.52       96.68       96.84       97.01       97.18       97.36       97.54       97.73    
        97.92       98.12       98.32       98.52       98.72       98.93       99.14       99.36       99.57       99.78    
        100.0    
  33    100.0       99.79       99.58       99.37       99.16       98.95       98.74       98.54       98.34       98.14    
        97.95       97.76       97.58       97.40       97.22       97.05       96.88       96.72       96.57       96.41    
        96.27       96.13       95.99       95.86       95.74       95.62       95.51       95.40       95.29       95.19    
        95.10       95.01       94.93       94.85       94.78       94.71       94.65       94.59       94.53       94.48    
        94.44       94.40       94.36       94.33       94.30       94.28       94.26       94.25       94.24       94.23    
        94.23       94.23       94.24       94.25       94.27       94.29       94.31       94.34       94.38       94.41    
        94.46       94.50       94.56       94.61       94.67       94.74       94.81       94.88       94.96       95.04    
        95.13       95.23       95.33       95.43       95.54       95.65       95.77       95.90       96.03       96.16    
        96.30       96.45       96.60       96.75       96.91       97.08       97.25       97.42       97.60       97.78    
        97.97       98.16       98.36       98.55       98.76       98.96       99.16       99.37       99.58       99.79    
        100.0    
  34    100.0       99.79       99.59       99.38       99.18       98.97       98.77       98.57       98.38       98.18    
        98.00       97.81       97.63       97.45       97.28       97.11       96.94       96.78       96.63       96.48    
        96.34       96.20       96.06       95.93       95.81       95.69       95.58       95.47       95.37       95.27    
        95.18       95.09       95.00       94.93       94.85       94.78       94.72       94.66       94.61       94.56    
        94.51       94.47       94.43       94.40       94.38       94.35       94.33       94.32       94.31       94.30    
        94.30       94.31       94.31       94.33       94.34       94.36       94.39       94.42       94.45       94.49    
        94.53       94.58       94.63       94.69       94.75       94.81       94.88       94.96       95.04       95.12    
        95.21       95.30       95.40       95.51       95.61       95.73       95.85       95.97       96.10       96.23    
        96.37       96.51       96.66       96.82       96.97       97.14       97.30       97.48       97.65       97.83    
        98.02       98.20       98.39       98.59       98.78       98.98       99.18       99.39       99.59       99.80    
        100.0    
  35    100.0       99.80       99.59       99.39       99.19       98.99       98.80       98.60       98.41       98.22    
        98.04       97.85       97.67       97.50       97.33       97.16       97.00       96.84       96.69       96.54    
        96.40       96.26       96.13       96.00       95.88       95.76       95.65       95.54       95.44       95.34    
        95.25       95.16       95.07       95.00       94.92       94.85       94.79       94.73       94.68       94.63    
        94.58       94.54       94.50       94.47       94.44       94.42       94.40       94.39       94.38       94.37    
        94.37       94.38       94.38       94.40       94.41       94.43       94.46       94.49       94.52       94.56    
        94.60       94.65       94.70       94.76       94.82       94.88       94.95       95.03       95.11       95.19    
        95.28       95.38       95.47       95.58       95.68       95.80       95.92       96.04       96.17       96.30    
        96.44       96.58       96.72       96.88       97.03       97.19       97.36       97.53       97.70       97.88    
        98.06       98.24       98.43       98.62       98.81       99.01       99.20       99.40       99.60       99.80    
        100.0    
  36    100.0       99.80       99.60       99.41       99.21       99.01       98.82       98.63       98.44       98.25    
        98.07       97.89       97.72       97.54       97.38       97.21       97.05       96.90       96.75       96.60    
        96.46       96.32       96.19       96.06       95.94       95.82       95.71       95.60       95.50       95.40    
        95.31       95.22       95.14       95.06       94.99       94.92       94.86       94.80       94.74       94.69    
        94.65       94.61       94.57       94.54       94.51       94.49       94.47       94.45       94.44       94.44    
        94.44       94.44       94.45       94.46       94.48       94.50       94.52       94.55       94.59       94.63    
        94.67       94.72       94.77       94.83       94.89       94.95       95.02       95.10       95.18       95.26    
        95.35       95.44       95.54       95.64       95.75       95.86       95.98       96.10       96.23       96.36    
        96.50       96.64       96.78       96.93       97.09       97.24       97.41       97.57       97.74       97.92    
        98.10       98.28       98.46       98.65       98.84       99.03       99.22       99.41       99.61       99.80    
        100.0    
  37    100.0       99.80       99.61       99.42       99.22       99.03       98.84       98.65       98.47       98.29    
        98.11       97.93       97.76       97.59       97.42       97.26       97.10       96.95       96.80       96.65    
        96.51       96.38       96.24       96.12       96.00       95.88       95.77       95.66       95.56       95.46    
        95.37       95.28       95.20       95.12       95.05       94.98       94.92       94.86       94.80       94.75    
        94.71       94.67       94.63       94.60       94.57       94.55       94.53       94.52       94.51       94.50    
        94.50       94.50       94.51       94.52       94.54       94.56       94.59       94.62       94.65       94.69    
        94.73       94.78       94.83       94.89       94.95       95.01       95.08       95.16       95.24       95.32    
        95.41       95.50       95.60       95.70       95.81       95.92       96.04       96.16       96.29       96.42    
        96.55       96.69       96.84       96.98       97.14       97.29       97.45       97.62       97.78       97.96    
        98.13       98.31       98.49       98.67       98.86       99.04       99.23       99.42       99.62       99.81    
        100.0    
  38    100.0       99.81       99.62       99.43       99.24       99.05       98.86       98.68       98.49       98.31    
        98.14       97.96       97.79       97.62       97.46       97.30       97.14       96.99       96.84       96.70    
        96.56       96.42       96.29       96.17       96.05       95.93       95.82       95.72       95.61       95.52    
        95.42       95.34       95.25       95.18       95.10       95.04       94.97       94.91       94.86       94.81    
        94.76       94.72       94.69       94.65       94.63       94.60       94.59       94.57       94.56       94.56    
        94.56       94.56       94.57       94.58       94.60       94.62       94.64       94.67       94.71       94.75    
        94.79       94.84       94.89       94.95       95.01       95.07       95.14       95.22       95.30       95.38    
        95.47       95.56       95.66       95.76       95.87       95.98       96.09       96.21       96.34       96.47    
        96.60       96.74       96.88       97.03       97.18       97.34       97.49       97.66       97.82       97.99    
        98.16       98.34       98.52       98.70       98.88       99.06       99.25       99.43       99.62       99.81    
        100.0    
  39    100.0       99.81       99.62       99.43       99.25       99.06       98.88       98.70       98.52       98.34    
        98.16       97.99       97.82       97.66       97.49       97.34       97.18       97.03       96.88       96.74    
        96.60       96.47       96.34       96.22       96.10       95.98       95.87       95.76       95.66       95.57    
        95.47       95.39       95.31       95.23       95.15       95.09       95.02       94.96       94.91       94.86    
        94.81       94.77       94.74       94.71       94.68       94.66       94.64       94.62       94.61       94.61    
        94.61       94.61       94.62       94.63       94.65       94.67       94.70       94.73       94.76       94.80    
        94.84       94.89       94.94       95.00       95.06       95.13       95.20       95.27       95.35       95.43    
        95.52       95.61       95.71       95.81       95.92       96.03       96.14       96.26       96.39       96.52    
        96.65       96.79       96.93       97.07       97.22       97.38       97.53       97.69       97.86       98.02    
        98.19       98.36       98.54       98.72       98.90       99.08       99.26       99.44       99.63       99.81    
        100.0    
  40    100.0       99.81       99.63       99.44       99.26       99.08       98.89       98.71       98.54       98.36    
        98.19       98.02       97.85       97.69       97.53       97.37       97.22       97.07       96.92       96.78    
        96.64       96.51       96.38       96.26       96.14       96.02       95.91       95.81       95.71       95.61    
        95.52       95.43       95.35       95.27       95.20       95.13       95.07       95.01       94.96       94.91    
        94.86       94.82       94.78       94.75       94.73       94.70       94.68       94.67       94.66       94.66    
        94.66       94.66       94.67       94.68       94.70       94.72       94.74       94.77       94.81       94.85    
        94.89       94.94       94.99       95.05       95.11       95.17       95.24       95.32       95.40       95.48    
        95.57       95.66       95.76       95.86       95.97       96.08       96.19       96.31       96.43       96.56    
        96.69       96.83       96.97       97.11       97.26       97.41       97.57       97.72       97.89       98.05    
        98.22       98.39       98.56       98.74       98.91       99.09       99.27       99.45       99.63       99.82    
        100.0    
  41    100.0       99.82       99.63       99.45       99.27       99.09       98.91       98.73       98.55       98.38    
        98.21       98.04       97.88       97.71       97.55       97.40       97.25       97.10       96.95       96.81    
        96.68       96.55       96.42       96.30       96.18       96.06       95.95       95.85       95.75       95.65    
        95.56       95.47       95.39       95.31       95.24       95.17       95.11       95.05       95.00       94.95    
        94.90       94.86       94.83       94.80       94.77       94.75       94.73       94.71       94.70       94.70    
        94.70       94.70       94.71       94.72       94.74       94.76       94.79       94.82       94.85       94.89    
        94.94       94.98       95.04       95.09       95.15       95.22       95.29       95.36       95.44       95.53    
        95.61       95.71       95.80       95.90       96.01       96.12       96.23       96.35       96.47       96.60    
        96.73       96.87       97.00       97.15       97.29       97.44       97.60       97.75       97.91       98.08    
        98.24       98.41       98.58       98.75       98.93       99.10       99.28       99.46       99.64       99.82    
        100.0    
  42    100.0       99.82       99.64       99.46       99.28       99.10       98.92       98.74       98.57       98.40    
        98.23       98.06       97.90       97.74       97.58       97.42       97.27       97.13       96.98       96.84    
        96.71       96.58       96.45       96.33       96.21       96.10       95.99       95.88       95.78       95.69    
        95.60       95.51       95.43       95.35       95.28       95.21       95.15       95.09       95.04       94.99    
        94.94       94.90       94.86       94.83       94.81       94.78       94.77       94.75       94.74       94.74    
        94.74       94.74       94.75       94.76       94.78       94.80       94.83       94.86       94.89       94.93    
        94.98       95.02       95.08       95.13       95.19       95.26       95.33       95.40       95.48       95.57    
        95.65       95.74       95.84       95.94       96.05       96.16       96.27       96.39       96.51       96.64    
        96.77       96.90       97.04       97.18       97.32       97.47       97.62       97.78       97.94       98.10    
        98.26       98.43       98.60       98.77       98.94       99.12       99.29       99.47       99.64       99.82    
        100.0    
  43    100.0       99.82       99.64       99.46       99.28       99.11       98.93       98.76       98.58       98.41    
        98.25       98.08       97.92       97.76       97.60       97.45       97.30       97.15       97.01       96.87    
        96.74       96.61       96.48       96.36       96.24       96.13       96.02       95.91       95.81       95.72    
        95.63       95.54       95.46       95.38       95.31       95.24       95.18       95.12       95.07       95.02    
        94.97       94.93       94.90       94.87       94.84       94.82       94.80       94.79       94.78       94.77    
        94.77       94.78       94.78       94.80       94.81       94.84       94.86       94.89       94.93       94.97    
        95.01       95.06       95.11       95.17       95.23       95.29       95.36       95.44       95.52       95.60    
        95.69       95.78       95.88       95.98       96.08       96.19       96.30       96.42       96.54       96.67    
        96.80       96.93       97.07       97.21       97.35       97.50       97.65       97.80       97.96       98.12    
        98.28       98.45       98.61       98.78       98.95       99.12       99.30       99.47       99.65       99.82    
        100.0    
  44    100.0       99.82       99.64       99.47       99.29       99.11       98.94       98.77       98.59       98.43    
        98.26       98.09       97.93       97.77       97.62       97.47       97.32       97.17       97.03       96.89    
        96.76       96.63       96.50       96.38       96.26       96.15       96.04       95.94       95.84       95.75    
        95.65       95.57       95.49       95.41       95.34       95.27       95.21       95.15       95.10       95.05    
        95.00       94.96       94.93       94.90       94.87       94.85       94.83       94.82       94.81       94.80    
        94.80       94.81       94.81       94.83       94.85       94.87       94.89       94.92       94.96       95.00    
        95.04       95.09       95.14       95.20       95.26       95.33       95.40       95.47       95.55       95.63    
        95.72       95.81       95.91       96.01       96.11       96.22       96.33       96.45       96.57       96.69    
        96.82       96.96       97.09       97.23       97.37       97.52       97.67       97.82       97.98       98.14    
        98.30       98.46       98.63       98.79       98.96       99.13       99.31       99.48       99.65       99.83    
        100.0    
  45    100.0       99.82       99.65       99.47       99.29       99.12       98.95       98.77       98.60       98.44    
        98.27       98.11       97.95       97.79       97.63       97.48       97.33       97.19       97.05       96.91    
        96.78       96.65       96.52       96.40       96.29       96.17       96.06       95.96       95.86       95.77    
        95.68       95.59       95.51       95.43       95.36       95.29       95.23       95.17       95.12       95.07    
        95.03       94.99       94.95       94.92       94.89       94.87       94.85       94.84       94.83       94.83    
        94.83       94.83       94.84       94.85       94.87       94.89       94.92       94.95       94.98       95.02    
        95.07       95.12       95.17       95.23       95.29       95.35       95.42       95.50       95.57       95.66    
        95.75       95.84       95.93       96.03       96.14       96.24       96.36       96.47       96.59       96.72    
        96.85       96.98       97.11       97.25       97.39       97.54       97.69       97.84       98.00       98.15    
        98.31       98.47       98.64       98.80       98.97       99.14       99.31       99.48       99.65       99.83    
        100.0    
  46    100.0       99.82       99.65       99.47       99.30       99.12       98.95       98.78       98.61       98.44    
        98.28       98.12       97.96       97.80       97.65       97.49       97.35       97.20       97.06       96.93    
        96.79       96.66       96.54       96.42       96.30       96.19       96.08       95.98       95.88       95.78    
        95.69       95.61       95.53       95.45       95.38       95.31       95.25       95.19       95.14       95.09    
        95.05       95.01       94.97       94.94       94.91       94.89       94.87       94.86       94.85       94.85    
        94.85       94.85       94.86       94.88       94.89       94.91       94.94       94.97       95.01       95.05    
        95.09       95.14       95.19       95.25       95.31       95.37       95.44       95.52       95.60       95.68    
        95.77       95.86       95.95       96.05       96.16       96.27       96.38       96.49       96.61       96.74    
        96.86       97.00       97.13       97.27       97.41       97.56       97.70       97.85       98.01       98.16    
        98.32       98.48       98.65       98.81       98.98       99.15       99.32       99.49       99.66       99.83    
        100.0    
  47    100.0       99.82       99.65       99.47       99.30       99.13       98.96       98.79       98.62       98.45    
        98.29       98.12       97.97       97.81       97.65       97.50       97.36       97.21       97.07       96.94    
        96.80       96.67       96.55       96.43       96.31       96.20       96.09       95.99       95.89       95.80    
        95.71       95.62       95.54       95.47       95.39       95.33       95.27       95.21       95.15       95.11    
        95.06       95.02       94.99       94.96       94.93       94.91       94.89       94.88       94.87       94.86    
        94.87       94.87       94.88       94.89       94.91       94.93       94.96       94.99       95.02       95.06    
        95.11       95.16       95.21       95.27       95.33       95.39       95.46       95.54       95.62       95.70    
        95.78       95.88       95.97       96.07       96.17       96.28       96.39       96.51       96.63       96.75    
        96.88       97.01       97.15       97.28       97.42       97.57       97.72       97.87       98.02       98.18    
        98.33       98.49       98.66       98.82       98.99       99.15       99.32       99.49       99.66       99.83    
        100.0    
  48    100.0       99.83       99.65       99.48       99.30       99.13       98.96       98.79       98.62       98.46    
        98.29       98.13       97.97       97.81       97.66       97.51       97.36       97.22       97.08       96.94    
        96.81       96.68       96.56       96.44       96.32       96.21       96.10       96.00       95.90       95.81    
        95.72       95.63       95.55       95.47       95.40       95.34       95.27       95.22       95.16       95.12    
        95.07       95.03       95.00       94.97       94.94       94.92       94.90       94.89       94.88       94.88    
        94.88       94.88       94.89       94.90       94.92       94.94       94.97       95.00       95.04       95.08    
        95.12       95.17       95.22       95.28       95.34       95.41       95.48       95.55       95.63       95.71    
        95.80       95.89       95.99       96.08       96.19       96.30       96.41       96.52       96.64       96.77    
        96.89       97.02       97.16       97.29       97.44       97.58       97.73       97.88       98.03       98.18    
        98.34       98.50       98.66       98.82       98.99       99.16       99.32       99.49       99.66       99.83    
        100.0    
  49    100.0       99.83       99.65       99.48       99.30       99.13       98.96       98.79       98.62       98.46    
        98.29       98.13       97.97       97.82       97.66       97.51       97.37       97.22       97.08       96.95    
        96.81       96.68       96.56       96.44       96.32       96.21       96.10       96.00       95.90       95.81    
        95.72       95.64       95.56       95.48       95.41       95.34       95.28       95.22       95.17       95.12    
        95.08       95.04       95.00       94.97       94.95       94.93       94.91       94.90       94.89       94.88    
        94.89       94.89       94.90       94.91       94.93       94.95       94.98       95.01       95.05       95.09    
        95.13       95.18       95.23       95.29       95.35       95.42       95.49       95.56       95.64       95.72    
        95.81       95.90       95.99       96.09       96.20       96.31       96.42       96.53       96.65       96.77    
        96.90       97.03       97.17       97.30       97.44       97.59       97.73       97.88       98.03       98.19    
        98.35       98.50       98.67       98.83       98.99       99.16       99.33       99.49       99.66       99.83    
        100.0    
  50    100.0       99.83       99.65       99.48       99.30       99.13       98.96       98.79       98.62       98.46    
        98.29       98.13       97.97       97.82       97.66       97.51       97.37       97.22       97.08       96.95    
        96.81       96.68       96.56       96.44       96.32       96.21       96.10       96.00       95.90       95.81    
        95.72       95.64       95.55       95.48       95.41       95.34       95.28       95.22       95.17       95.12    
        95.08       95.04       95.01       94.98       94.95       94.93       94.91       94.90       94.89       94.89    
        94.89       94.89       94.90       94.92       94.94       94.96       94.98       95.02       95.05       95.09    
        95.14       95.18       95.24       95.29       95.36       95.42       95.49       95.57       95.64       95.73    
        95.81       95.90       96.00       96.10       96.20       96.31       96.42       96.54       96.66       96.78    
        96.91       97.04       97.17       97.31       97.45       97.59       97.74       97.89       98.04       98.19    
        98.35       98.51       98.67       98.83       99.00       99.16       99.33       99.49       99.66       99.83    
        100.0    
  51    100.0       99.83       99.65       99.48       99.30       99.13       98.96       98.79       98.62       98.45    
        98.29       98.13       97.97       97.81       97.66       97.51       97.36       97.22       97.08       96.94    
        96.81       96.68       96.55       96.43       96.32       96.21       96.10       96.00       95.90       95.80    
        95.71       95.63       95.55       95.47       95.40       95.34       95.28       95.22       95.17       95.12    
        95.08       95.04       95.00       94.97       94.95       94.93       94.91       94.90       94.89       94.89    
        94.89       94.89       94.90       94.92       94.93       94.96       94.98       95.02       95.05       95.09    
        95.14       95.18       95.24       95.29       95.36       95.42       95.49       95.57       95.64       95.73    
        95.81       95.91       96.00       96.10       96.20       96.31       96.42       96.54       96.66       96.78    
        96.91       97.04       97.17       97.31       97.45       97.59       97.74       97.89       98.04       98.19    
        98.35       98.51       98.67       98.83       99.00       99.16       99.33       99.49       99.66       99.83    
        100.0    
  52    100.0       99.82       99.65       99.47       99.30       99.13       98.96       98.79       98.62       98.45    
        98.29       98.12       97.96       97.81       97.65       97.50       97.35       97.21       97.07       96.93    
        96.80       96.67       96.55       96.42       96.31       96.20       96.09       95.99       95.89       95.79    
        95.71       95.62       95.54       95.47       95.40       95.33       95.27       95.21       95.16       95.11    
        95.07       95.03       95.00       94.97       94.94       94.92       94.90       94.89       94.88       94.88    
        94.88       94.89       94.90       94.91       94.93       94.95       94.98       95.01       95.05       95.09    
        95.13       95.18       95.23       95.29       95.35       95.42       95.49       95.56       95.64       95.72    
        95.81       95.90       96.00       96.10       96.20       96.31       96.42       96.54       96.66       96.78    
        96.91       97.04       97.17       97.31       97.45       97.59       97.74       97.89       98.04       98.19    
        98.35       98.51       98.67       98.83       98.99       99.16       99.33       99.49       99.66       99.83    
        100.0    
  53    100.0       99.82       99.65       99.47       99.30       99.12       98.95       98.78       98.61       98.44    
        98.28       98.12       97.95       97.80       97.64       97.49       97.34       97.20       97.06       96.92    
        96.79       96.66       96.53       96.41       96.29       96.18       96.07       95.97       95.87       95.78    
        95.69       95.61       95.53       95.45       95.38       95.32       95.26       95.20       95.15       95.10    
        95.06       95.02       94.98       94.96       94.93       94.91       94.89       94.88       94.87       94.87    
        94.87       94.88       94.89       94.90       94.92       94.94       94.97       95.00       95.04       95.08    
        95.12       95.17       95.23       95.28       95.34       95.41       95.48       95.56       95.63       95.72    
        95.80       95.90       95.99       96.09       96.19       96.30       96.41       96.53       96.65       96.77    
        96.90       97.03       97.16       97.30       97.44       97.59       97.73       97.88       98.03       98.19    
        98.35       98.50       98.67       98.83       98.99       99.16       99.33       99.49       99.66       99.83    
        100.0    
  54    100.0       99.82       99.65       99.47       99.29       99.12       98.95       98.77       98.60       98.43    
        98.27       98.10       97.94       97.78       97.63       97.48       97.33       97.18       97.04       96.90    
        96.77       96.64       96.51       96.39       96.28       96.16       96.06       95.95       95.85       95.76    
        95.67       95.59       95.51       95.43       95.36       95.30       95.24       95.18       95.13       95.08    
        95.04       95.00       94.97       94.94       94.91       94.89       94.88       94.87       94.86       94.86    
        94.86       94.86       94.87       94.89       94.91       94.93       94.96       94.99       95.03       95.07    
        95.11       95.16       95.21       95.27       95.33       95.40       95.47       95.54       95.62       95.71    
        95.79       95.88       95.98       96.08       96.18       96.29       96.40       96.52       96.64       96.76    
        96.89       97.02       97.15       97.29       97.43       97.58       97.72       97.87       98.03       98.18    
        98.34       98.50       98.66       98.82       98.99       99.16       99.32       99.49       99.66       99.83    
        100.0    
  55    100.0       99.82       99.64       99.47       99.29       99.11       98.94       98.76       98.59       98.42    
        98.26       98.09       97.93       97.77       97.61       97.46       97.31       97.16       97.02       96.88    
        96.75       96.62       96.49       96.37       96.25       96.14       96.03       95.93       95.83       95.74    
        95.65       95.56       95.49       95.41       95.34       95.28       95.22       95.16       95.11       95.06    
        95.02       94.98       94.95       94.92       94.89       94.87       94.86       94.85       94.84       94.84    
        94.84       94.85       94.86       94.87       94.89       94.91       94.94       94.97       95.01       95.05    
        95.09       95.14       95.20       95.25       95.32       95.38       95.45       95.53       95.61       95.69    
        95.78       95.87       95.97       96.07       96.17       96.28       96.39       96.51       96.63       96.75    
        96.88       97.01       97.14       97.28       97.42       97.57       97.71       97.86       98.02       98.17    
        98.33       98.49       98.65       98.82       98.98       99.15       99.32       99.49       99.66       99.83    
        100.0    
  56    100.0       99.82       99.64       99.46       99.28       99.11       98.93       98.75       98.58       98.41    
        98.24       98.08       97.91       97.75       97.59       97.44       97.29       97.14       97.00       96.86    
        96.72       96.59       96.47       96.34       96.23       96.11       96.00       95.90       95.80       95.71    
        95.62       95.54       95.46       95.38       95.31       95.25       95.19       95.13       95.08       95.04    
        94.99       94.96       94.92       94.89       94.87       94.85       94.84       94.82       94.82       94.82    
        94.82       94.82       94.83       94.85       94.87       94.89       94.92       94.95       94.99       95.03    
        95.07       95.12       95.18       95.23       95.30       95.36       95.43       95.51       95.59       95.67    
        95.76       95.85       95.95       96.05       96.15       96.26       96.37       96.49       96.61       96.73    
        96.86       96.99       97.13       97.27       97.41       97.55       97.70       97.85       98.01       98.16    
        98.32       98.48       98.65       98.81       98.98       99.15       99.32       99.49       99.66       99.83    
        100.0    
  57    100.0       99.82       99.64       99.46       99.28       99.10       98.92       98.74       98.57       98.40    
        98.23       98.06       97.89       97.73       97.57       97.42       97.26       97.11       96.97       96.83    
        96.69       96.56       96.43       96.31       96.19       96.08       95.97       95.87       95.77       95.68    
        95.59       95.50       95.42       95.35       95.28       95.22       95.16       95.10       95.05       95.01    
[...]
        92.83       92.91       92.99       93.07       93.17       93.27       93.37       93.49       93.61       93.74    
        93.88       94.04       94.20       94.38       94.56       94.77       94.99       95.22       95.47       95.75    
        96.04       96.35       96.68       97.04       97.41       97.81       98.22       98.65       99.09       99.54    
        100.0    
  88    100.0       99.50       99.00       98.52       98.05       97.60       97.18       96.77       96.40       96.04    
        95.71       95.41       95.12       94.86       94.61       94.38       94.17       93.97       93.79       93.62    
        93.47       93.32       93.19       93.07       92.95       92.85       92.75       92.67       92.59       92.52    
        92.45       92.39       92.34       92.29       92.25       92.21       92.17       92.14       92.11       92.09    
        92.07       92.05       92.03       92.02       92.01       92.00       91.99       91.99       91.99       91.99    
        91.99       92.00       92.01       92.02       92.03       92.05       92.06       92.09       92.11       92.14    
        92.17       92.20       92.24       92.27       92.32       92.36       92.41       92.47       92.52       92.59    
        92.65       92.73       92.80       92.89       92.98       93.07       93.17       93.28       93.40       93.53    
        93.67       93.82       93.98       94.15       94.33       94.54       94.75       94.99       95.24       95.52    
        95.81       96.13       96.48       96.84       97.24       97.65       98.09       98.55       99.02       99.51    
        100.0    
  89    100.0       99.46       98.93       98.41       97.91       97.43       96.98       96.56       96.17       95.81    
        95.47       95.16       94.88       94.61       94.37       94.15       93.94       93.75       93.57       93.41    
        93.26       93.12       92.99       92.88       92.77       92.67       92.58       92.50       92.42       92.35    
        92.29       92.23       92.18       92.14       92.09       92.06       92.02       91.99       91.97       91.94    
        91.92       91.90       91.89       91.87       91.86       91.85       91.85       91.84       91.84       91.84    
        91.85       91.85       91.86       91.87       91.88       91.90       91.92       91.94       91.96       91.98    
        92.01       92.04       92.08       92.11       92.15       92.20       92.24       92.29       92.35       92.41    
        92.47       92.54       92.61       92.69       92.78       92.87       92.97       93.07       93.19       93.31    
        93.44       93.58       93.74       93.91       94.09       94.29       94.50       94.74       94.99       95.27    
        95.57       95.89       96.25       96.63       97.04       97.48       97.94       98.43       98.94       99.47    
        100.0    
  90    100.0       99.41       98.83       98.27       97.74       97.23       96.76       96.32       95.92       95.55    
        95.21       94.90       94.61       94.35       94.11       93.89       93.69       93.51       93.34       93.18    
        93.04       92.91       92.79       92.68       92.57       92.48       92.39       92.32       92.25       92.18    
        92.12       92.07       92.02       91.98       91.94       91.90       91.87       91.84       91.81       91.79    
        91.77       91.75       91.74       91.73       91.72       91.71       91.70       91.70       91.70       91.70    
        91.70       91.71       91.72       91.72       91.74       91.75       91.77       91.78       91.81       91.83    
        91.86       91.88       91.92       91.95       91.99       92.03       92.07       92.12       92.17       92.23    
        92.28       92.35       92.42       92.49       92.57       92.66       92.75       92.85       92.96       93.08    
        93.20       93.34       93.49       93.65       93.83       94.02       94.23       94.46       94.72       94.99    
        95.29       95.63       95.99       96.38       96.81       97.28       97.77       98.30       98.85       99.42    
        100.0    
  91    100.0       99.35       98.72       98.11       97.54       97.00       96.51       96.05       95.64       95.26    
        94.92       94.61       94.32       94.07       93.84       93.62       93.43       93.25       93.09       92.94    
        92.81       92.68       92.57       92.47       92.37       92.28       92.20       92.13       92.06       92.00    
        91.95       91.90       91.85       91.81       91.77       91.74       91.71       91.68       91.66       91.64    
        91.62       91.60       91.59       91.58       91.57       91.56       91.56       91.55       91.55       91.55    
        91.55       91.56       91.57       91.57       91.59       91.60       91.61       91.63       91.65       91.67    
        91.70       91.72       91.75       91.78       91.82       91.85       91.90       91.94       91.99       92.04    
        92.09       92.15       92.22       92.29       92.36       92.44       92.53       92.62       92.72       92.83    
        92.95       93.09       93.23       93.38       93.55       93.74       93.94       94.17       94.42       94.69    
        94.99       95.33       95.70       96.10       96.55       97.04       97.57       98.14       98.74       99.36    
        100.0    
  92    100.0       99.29       98.59       97.92       97.30       96.73       96.21       95.74       95.31       94.93    
        94.59       94.29       94.01       93.76       93.54       93.34       93.15       92.98       92.83       92.69    
        92.57       92.45       92.35       92.25       92.16       92.08       92.00       91.94       91.88       91.82    
        91.77       91.72       91.68       91.64       91.61       91.58       91.55       91.52       91.50       91.48    
        91.46       91.45       91.44       91.43       91.42       91.41       91.41       91.40       91.40       91.40    
        91.41       91.41       91.42       91.42       91.43       91.44       91.46       91.47       91.49       91.51    
        91.53       91.56       91.58       91.61       91.64       91.68       91.72       91.76       91.80       91.85    
        91.90       91.95       92.01       92.07       92.14       92.22       92.30       92.39       92.48       92.58    
        92.70       92.82       92.95       93.10       93.26       93.44       93.63       93.85       94.09       94.36    
        94.66       94.99       95.37       95.78       96.25       96.76       97.33       97.94       98.60       99.29    
        100.0    
  93    100.0       99.20       98.42       97.69       97.02       96.41       95.86       95.38       94.95       94.57    
        94.23       93.93       93.67       93.43       93.22       93.03       92.86       92.70       92.56       92.43    
        92.31       92.21       92.11       92.02       91.94       91.87       91.80       91.74       91.68       91.63    
        91.58       91.54       91.50       91.47       91.44       91.41       91.38       91.36       91.34       91.32    
        91.31       91.29       91.28       91.27       91.27       91.26       91.25       91.25       91.25       91.25    
        91.25       91.26       91.26       91.27       91.28       91.29       91.30       91.32       91.33       91.35    
        91.37       91.39       91.41       91.44       91.47       91.50       91.53       91.57       91.61       91.65    
        91.70       91.75       91.80       91.86       91.92       91.99       92.06       92.14       92.23       92.32    
        92.43       92.54       92.66       92.80       92.95       93.12       93.30       93.51       93.74       94.00    
        94.29       94.62       95.00       95.42       95.90       96.44       97.04       97.71       98.43       99.20    
        100.0    
  94    100.0       99.09       98.21       97.40       96.66       96.02       95.45       94.96       94.53       94.16    
        93.83       93.55       93.30       93.07       92.88       92.70       92.54       92.40       92.27       92.16    
        92.05       91.95       91.87       91.79       91.71       91.65       91.59       91.53       91.48       91.44    
        91.40       91.36       91.32       91.29       91.27       91.24       91.22       91.20       91.18       91.16    
        91.15       91.14       91.13       91.12       91.11       91.11       91.10       91.10       91.10       91.10    
        91.10       91.10       91.11       91.11       91.12       91.13       91.14       91.16       91.17       91.18    
        91.20       91.22       91.24       91.27       91.29       91.32       91.35       91.38       91.42       91.45    
        91.49       91.54       91.59       91.64       91.69       91.75       91.82       91.89       91.97       92.05    
        92.15       92.25       92.36       92.49       92.63       92.78       92.95       93.14       93.36       93.61    
        93.89       94.21       94.57       95.00       95.48       96.04       96.69       97.41       98.22       99.09    
        100.0    
  95    100.0       98.93       97.93       97.02       96.23       95.55       94.97       94.48       94.06       93.70    
        93.40       93.13       92.90       92.69       92.52       92.36       92.21       92.09       91.97       91.87    
        91.78       91.69       91.62       91.55       91.48       91.42       91.37       91.32       91.28       91.24    
        91.20       91.17       91.14       91.11       91.09       91.07       91.05       91.03       91.01       91.00    
        90.99       90.98       90.97       90.96       90.96       90.95       90.95       90.94       90.94       90.94    
        90.95       90.95       90.95       90.96       90.97       90.97       90.98       90.99       91.01       91.02    
        91.03       91.05       91.07       91.09       91.11       91.13       91.16       91.19       91.22       91.25    
        91.29       91.33       91.37       91.41       91.46       91.51       91.57       91.63       91.70       91.78    
        91.86       91.95       92.05       92.16       92.28       92.42       92.58       92.75       92.95       93.18    
        93.44       93.74       94.10       94.51       95.00       95.57       96.25       97.04       97.94       98.94    
        100.0    
  96    100.0       98.72       97.55       96.54       95.68       94.98       94.40       93.92       93.53       93.20    
        92.92       92.68       92.47       92.29       92.13       91.99       91.87       91.76       91.66       91.58    
        91.50       91.42       91.36       91.30       91.24       91.20       91.15       91.11       91.07       91.04    
        91.01       90.98       90.96       90.93       90.91       90.89       90.88       90.86       90.85       90.84    
        90.83       90.82       90.81       90.80       90.80       90.79       90.79       90.79       90.79       90.79    
        90.79       90.79       90.80       90.80       90.81       90.81       90.82       90.83       90.84       90.85    
        90.86       90.88       90.89       90.91       90.93       90.95       90.97       90.99       91.02       91.05    
        91.08       91.11       91.14       91.18       91.22       91.27       91.32       91.37       91.43       91.49    
        91.56       91.64       91.73       91.82       91.93       92.05       92.18       92.34       92.51       92.72    
        92.95       93.23       93.56       93.95       94.42       95.00       95.70       96.55       97.56       98.73    
        100.0    
  97    100.0       98.41       97.02       95.88       94.99       94.28       93.73       93.29       92.93       92.64    
        92.39       92.19       92.01       91.86       91.73       91.62       91.51       91.42       91.34       91.27    
        91.21       91.15       91.09       91.05       91.00       90.96       90.93       90.89       90.86       90.84    
        90.81       90.79       90.77       90.75       90.73       90.72       90.70       90.69       90.68       90.67    
        90.66       90.66       90.65       90.64       90.64       90.64       90.63       90.63       90.63       90.63    
        90.63       90.64       90.64       90.64       90.65       90.65       90.66       90.67       90.67       90.68    
        90.69       90.70       90.72       90.73       90.74       90.76       90.78       90.80       90.82       90.84    
        90.86       90.89       90.92       90.95       90.98       91.02       91.06       91.10       91.15       91.20    
        91.26       91.32       91.39       91.47       91.56       91.66       91.77       91.90       92.05       92.22    
        92.43       92.67       92.96       93.31       93.75       94.30       95.00       95.89       97.02       98.41    
        100.0    
  98    100.0       97.90       96.23       94.99       94.10       93.44       92.95       92.57       92.27       92.03    
        91.84       91.67       91.53       91.42       91.31       91.22       91.15       91.08       91.02       90.96    
        90.91       90.87       90.82       90.79       90.75       90.72       90.70       90.67       90.65       90.63    
        90.61       90.59       90.58       90.56       90.55       90.54       90.53       90.52       90.51       90.50    
        90.50       90.49       90.49       90.48       90.48       90.48       90.48       90.48       90.47       90.47    
        90.48       90.48       90.48       90.48       90.49       90.49       90.49       90.50       90.51       90.51    
        90.52       90.53       90.54       90.55       90.56       90.57       90.59       90.60       90.62       90.63    
        90.65       90.67       90.69       90.71       90.74       90.77       90.80       90.83       90.87       90.91    
        90.95       91.00       91.05       91.11       91.18       91.26       91.35       91.45       91.56       91.70    
        91.86       92.05       92.29       92.59       92.96       93.45       94.11       95.00       96.23       97.91    
        100.0    
  99    100.0       96.97       95.00       93.76       92.97       92.43       92.05       91.77       91.55       91.38    
        91.24       91.13       91.03       90.95       90.88       90.82       90.77       90.72       90.68       90.64    
        90.61       90.58       90.55       90.53       90.51       90.48       90.47       90.45       90.43       90.42    
        90.41       90.40       90.39       90.38       90.37       90.36       90.35       90.35       90.34       90.34    
        90.33       90.33       90.33       90.32       90.32       90.32       90.32       90.32       90.32       90.32    
        90.32       90.32       90.32       90.32       90.32       90.33       90.33       90.33       90.34       90.34    
        90.35       90.35       90.36       90.37       90.37       90.38       90.39       90.40       90.41       90.42    
        90.43       90.45       90.46       90.48       90.49       90.51       90.53       90.56       90.58       90.61    
        90.64       90.67       90.71       90.75       90.79       90.84       90.90       90.97       91.05       91.15    
        91.26       91.40       91.57       91.78       92.06       92.44       92.97       93.77       95.00       96.98    
        100.0    
 100    100.0       95.00       93.02       92.09       91.58       91.27       91.06       90.90       90.79       90.70    
        90.63       90.57       90.52       90.48       90.44       90.41       90.39       90.36       90.34       90.32    
        90.31       90.29       90.28       90.26       90.25       90.24       90.23       90.23       90.22       90.21    
        90.20       90.20       90.19       90.19       90.18       90.18       90.18       90.17       90.17       90.17    
        90.17       90.16       90.16       90.16       90.16       90.16       90.16       90.16       90.16       90.16    
        90.16       90.16       90.16       90.16       90.16       90.16       90.17       90.17       90.17       90.17    
        90.17       90.18       90.18       90.18       90.19       90.19       90.20       90.20       90.21       90.21    
        90.22       90.22       90.23       90.24       90.25       90.26       90.27       90.28       90.29       90.30    
        90.32       90.34       90.35       90.37       90.40       90.42       90.45       90.49       90.53       90.58    
        90.64       90.71       90.80       90.91       91.06       91.27       91.58       92.09       93.02       95.00    
        100.0    
 101    100.0       90.00       90.00       90.00       90.00       90.00       90.00       90.00       90.00       90.00    
        90.00       90.00       90.00       90.00       90.00       90.00       90.00       90.00       90.00       90.00    
        90.00       90.00       90.00       90.00       90.00       90.00       90.00       90.00       90.00       90.00    
        90.00       90.00       90.00       90.00       90.00       90.00       90.00       90.00       90.00       90.00    
        90.00       90.00       90.00       90.00       90.00       90.00       90.00       90.00       90.00       90.00    
        90.00       90.00       90.00       90.00       90.00       90.00       90.00       90.00       90.00       90.00    
        90.00       90.00       90.00       90.00       90.00       90.00       90.00       90.00       90.00       90.00    
        90.00       90.00       90.00       90.00       90.00       90.00       90.00       90.00       90.00       90.00    
        90.00       90.00       90.00       90.00       90.00       90.00       90.00       90.00       90.00       90.00    
        90.00       90.00       90.00       90.00       90.00       90.00       90.00       90.00       90.00       90.00    
        100.0    

 HEAD WILL BE SAVED ON UNIT 1013 AT END OF TIME STEP    1, STRESS PERIOD    1


  VOLUME BUDGET FOR ENTIRE MODEL AT END OF TIME STEP    1, STRESS PERIOD   1
  ---------------------------------------------------------------------------------------------------

     CUMULATIVE VOLUME      L**3       RATES FOR THIS TIME STEP      L**3/T          PACKAGE NAME    
     ------------------                 ------------------------                     ----------------

           IN:                                      IN:
           ---                                      ---
                 CHD =        5540.3868                   CHD =        5540.3868     CHD_0           

            TOTAL IN =        5540.3868              TOTAL IN =        5540.3868

          OUT:                                     OUT:
          ----                                     ----
                 CHD =        5540.4556                   CHD =        5540.4556     CHD_0           

           TOTAL OUT =        5540.4556             TOTAL OUT =        5540.4556

            IN - OUT =      -6.8773E-02              IN - OUT =      -6.8773E-02

 PERCENT DISCREPANCY =          -0.00     PERCENT DISCREPANCY =          -0.00




         TIME SUMMARY AT END OF TIME STEP    1 IN STRESS PERIOD    1
                    SECONDS     MINUTES      HOURS       DAYS        YEARS
                    -----------------------------------------------------------
   TIME STEP LENGTH  86400.      1440.0      24.000      1.0000     2.73785E-03
 STRESS PERIOD TIME  86400.      1440.0      24.000      1.0000     2.73785E-03
         TOTAL TIME  86400.      1440.0      24.000      1.0000     2.73785E-03


end timestep

